  109
Nonperiodic system unitcell [{13.16 0.0 0.0}, {0.0 13.16 0.0}, {0.0 0.0 20.0}]
Au     0.005420    -0.018380     0.742930
Au    -2.717978    -0.967359     0.743270
Au     2.728818     0.930609     0.742590
Au    -5.441366    -1.916348     0.743610
Au     5.452216     1.879598     0.742250
Au    -8.164764    -2.865337     0.743950
Au     8.175604     2.828587     0.741910
Au    -0.534453    -2.851320     0.760920
Au    -3.257852    -3.800309     0.761260
Au     2.188945    -1.902331     0.760580
Au     4.912333    -0.953342     0.760240
Au    -5.981240    -4.749298     0.761600
Au     7.635731    -0.004353     0.759900
Au    -2.178095     1.865581     0.725280
Au    -4.901493     0.916592     0.725620
Au     0.545293     2.814570     0.724940
Au     3.268691     3.763559     0.724600
Au    -7.624891    -0.032397     0.725960
Au     5.992089     4.712548     0.724260
Au     1.649061    -4.735281     0.778570
Au    -1.074327    -5.684270     0.778910
Au     4.372459    -3.786292     0.778230
Au    -3.797725    -6.633259     0.779250
Au     7.095857    -2.837303     0.777890
Au    -1.638222     4.698531     0.707290
Au    -4.361620     3.749542     0.707630
Au     1.085166     5.647520     0.706950
Au    -7.085018     2.800553     0.707970
Au     3.808564     6.596499     0.706610
Au    -1.614170    -8.517310     0.796900
Au     3.832616    -6.619332     0.796220
Au     6.556014    -5.670343     0.795880
Au     1.109228    -7.568321     0.796560
Au    -6.545175     5.633594     0.689970
Au    -1.098379     7.531571     0.689290
Au     1.625009     8.480560     0.688950
Au    -3.821777     6.582582     0.689630
C     -3.129116     3.966749     4.710840
C     -5.205566     3.436078     4.190370
C     -4.538237     2.281536     4.479040
N     -3.248891     2.637201     4.803250
H     -2.223945     4.532292     4.921790
H     -6.241653     3.611968     3.915730
H     -4.872647     1.248452     4.505260
C     -2.187728     1.710351     5.169200
H     -1.698305     1.334842     4.263070
H     -2.628164     0.875940     5.723390
H     -1.451158     2.236048     5.784020
N     -4.313286     4.474312     4.349340
C     -4.663170     5.891258     4.207160
H     -5.437666     6.107863     4.958500
H     -5.141478     5.992157     3.214550
C     -3.486592     6.816936     4.339950
H     -3.018343     6.758157     5.332030
H     -3.826703     7.851263     4.207790
H     -2.713966     6.613612     3.584180
C     -1.680266    -4.046589     4.121280
C     -0.297128    -5.760705     4.268950
C      0.452353    -4.620219     4.254940
N     -0.430007    -3.566762     4.172220
H     -2.587345    -3.441061     4.046460
H     -0.004128    -6.803670     4.345700
H      1.524477    -4.457169     4.306470
C     -0.071240    -2.156549     4.179510
H      0.613164    -1.941581     3.346570
H      0.456994    -1.919429     5.112260
H     -0.984109    -1.558101     4.092480
N     -1.619231    -5.382390     4.199880
C     -2.749519    -6.316099     4.233670
H     -2.605731    -6.952861     5.118990
H     -2.648861    -6.971801     3.347720
C     -4.085426    -5.629024     4.256680
H     -4.211784    -4.984751     5.136840
H     -4.879870    -6.384929     4.283140
H     -4.245964    -5.009970     3.359950
C      4.628515     1.324823     4.387310
C      5.440374     3.356608     4.113800
C      4.078925     3.451964     4.158750
N      3.595751     2.174713     4.336190
H      4.555135     0.252215     4.552670
H      6.205738     4.120434     4.010780
H      3.408211     4.304507     4.099910
C      2.194594     1.815789     4.496530
H      1.682824     1.823809     3.522010
H      1.710888     2.548648     5.150710
H      2.140296     0.812660     4.926400
N      5.761599     2.026552     4.268790
C      7.130829     1.501026     4.327590
H      7.618888     1.972397     5.194020
H      7.642836     1.878967     3.424000
C      7.186771     0.001725     4.403990
H      6.704233    -0.393686     5.308510
H      8.235045    -0.319124     4.431570
H      6.709422    -0.472986     3.533620
B      3.446416    -1.848535     3.854320
F      2.817393    -3.041683     3.459910
F      3.378960    -1.633423     5.208030
F      2.753986    -0.766182     3.202220
F      4.774906    -1.843650     3.400610
B      0.053522     4.376740     3.769830
F      1.384384     4.485745     3.327010
F     -0.690117     5.474674     3.301280
F     -0.018029     4.287411     5.145430
F     -0.511500     3.190250     3.211780
B     -4.197713    -1.203901     3.886340
F     -5.193229    -0.486852     3.190820
F     -4.231247    -0.900280     5.223250
F     -2.918805    -0.814165     3.361350
F     -4.354589    -2.578368     3.645350
